Command line:
./run.sh gcc /home/chihmin/gem5/out 64 32 96 2 1
================= Hardcoded directories ==================
GEM5_DIR:                                     /home/chihmin/gem5
SPEC_DIR:                                     /home/chihmin/gem5/GEM5_SPEC2006
==================== Script inputs =======================
BENCHMARK:                                    gcc
OUTPUT_DIR:                                   /home/chihmin/gem5/out
==========================================================
Changing to SPEC benchmark runtime directory: /home/chihmin/gem5/GEM5_SPEC2006/bin


--------- Here goes nothing! Starting gem5! ------------


gem5 Simulator System.  http://gem5.org
gem5 is copyrighted software; use the --copyright option for details.

gem5 compiled Oct  4 2015 10:57:13
gem5 started Nov  2 2015 11:33:50
gem5 executing on vditest0
command line: /home/chihmin/gem5/build/ALPHA_MOESI_CMP_directory/gem5.fast --outdir=/home/chihmin/gem5/out /home/chihmin/gem5/configs/example/spec06_config.py --cpu-type=timing --cpu-clock 2GHz --mem-size=1024MB --caches --l2cache --l1d_size=64kB --l1i_size=32kB --l2_size=2MB --l2_assoc=1 --benchmark=gcc --benchmark_stdout=/home/chihmin/gem5/out/_2MB_1_SET.out --benchmark_stderr=/home/chihmin/gem5/out/_2MB_1_SET.err

Selected SPEC_CPU2006 benchmark
--> gcc
Process stdout file: /home/chihmin/gem5/out/_2MB_1_SET.out
Process stderr file: /home/chihmin/gem5/out/_2MB_1_SET.err
['403.gcc_base.alpha-gem5', '166.i', '-o', '166.s']
Global frequency set at 1000000000000 ticks per second
**** REAL SIMULATION ****
info: Entering event queue @ 0.  Starting simulation...
info: Increasing stack size by one page.
info: Increasing stack size by one page.
Exiting @ tick 15447517500 because target called exit()
