
---------- Begin Simulation Statistics ----------
sim_seconds                                  0.015432                       # Number of seconds simulated
sim_ticks                                 15431709500                       # Number of ticks simulated
final_tick                                15431709500                       # Number of ticks from beginning of simulation (restored from checkpoints and never reset)
sim_freq                                 1000000000000                       # Frequency of simulated ticks
host_inst_rate                                1465642                       # Simulator instruction rate (inst/s)
host_op_rate                                  1465639                       # Simulator op (including micro ops) rate (op/s)
host_tick_rate                             2010799237                       # Simulator tick rate (ticks/s)
host_mem_usage                                1164840                       # Number of bytes of host memory used
host_seconds                                     7.67                       # Real time elapsed on the host
sim_insts                                    11247895                       # Number of instructions simulated
sim_ops                                      11247895                       # Number of ops (including micro ops) simulated
system.voltage_domain.voltage                       1                       # Voltage in Volts
system.clk_domain.clock                          1000                       # Clock period in ticks
system.mem_ctrls.bytes_read::cpu.inst          190144                       # Number of bytes read from this memory
system.mem_ctrls.bytes_read::cpu.data          775488                       # Number of bytes read from this memory
system.mem_ctrls.bytes_read::total             965632                       # Number of bytes read from this memory
system.mem_ctrls.bytes_inst_read::cpu.inst       190144                       # Number of instructions bytes read from this memory
system.mem_ctrls.bytes_inst_read::total        190144                       # Number of instructions bytes read from this memory
system.mem_ctrls.bytes_written::writebacks        81728                       # Number of bytes written to this memory
system.mem_ctrls.bytes_written::total           81728                       # Number of bytes written to this memory
system.mem_ctrls.num_reads::cpu.inst             2971                       # Number of read requests responded to by this memory
system.mem_ctrls.num_reads::cpu.data            12117                       # Number of read requests responded to by this memory
system.mem_ctrls.num_reads::total               15088                       # Number of read requests responded to by this memory
system.mem_ctrls.num_writes::writebacks          1277                       # Number of write requests responded to by this memory
system.mem_ctrls.num_writes::total               1277                       # Number of write requests responded to by this memory
system.mem_ctrls.bw_read::cpu.inst           12321642                       # Total read bandwidth from this memory (bytes/s)
system.mem_ctrls.bw_read::cpu.data           50252890                       # Total read bandwidth from this memory (bytes/s)
system.mem_ctrls.bw_read::total              62574532                       # Total read bandwidth from this memory (bytes/s)
system.mem_ctrls.bw_inst_read::cpu.inst      12321642                       # Instruction read bandwidth from this memory (bytes/s)
system.mem_ctrls.bw_inst_read::total         12321642                       # Instruction read bandwidth from this memory (bytes/s)
system.mem_ctrls.bw_write::writebacks         5296108                       # Write bandwidth from this memory (bytes/s)
system.mem_ctrls.bw_write::total              5296108                       # Write bandwidth from this memory (bytes/s)
system.mem_ctrls.bw_total::writebacks         5296108                       # Total bandwidth to/from this memory (bytes/s)
system.mem_ctrls.bw_total::cpu.inst          12321642                       # Total bandwidth to/from this memory (bytes/s)
system.mem_ctrls.bw_total::cpu.data          50252890                       # Total bandwidth to/from this memory (bytes/s)
system.mem_ctrls.bw_total::total             67870640                       # Total bandwidth to/from this memory (bytes/s)
system.mem_ctrls.readReqs                       15088                       # Number of read requests accepted
system.mem_ctrls.writeReqs                       1277                       # Number of write requests accepted
system.mem_ctrls.readBursts                     15088                       # Number of DRAM read bursts, including those serviced by the write queue
system.mem_ctrls.writeBursts                     1277                       # Number of DRAM write bursts, including those merged in the write queue
system.mem_ctrls.bytesReadDRAM                 965632                       # Total number of bytes read from DRAM
system.mem_ctrls.bytesReadWrQ                       0                       # Total number of bytes read from write queue
system.mem_ctrls.bytesWritten                   80448                       # Total number of bytes written to DRAM
system.mem_ctrls.bytesReadSys                  965632                       # Total read bytes from the system interface side
system.mem_ctrls.bytesWrittenSys                81728                       # Total written bytes from the system interface side
system.mem_ctrls.servicedByWrQ                      0                       # Number of DRAM read bursts serviced by the write queue
system.mem_ctrls.mergedWrBursts                     0                       # Number of DRAM write bursts merged with an existing one
system.mem_ctrls.neitherReadNorWriteReqs            0                       # Number of requests that are neither read nor write
system.mem_ctrls.perBankRdBursts::0              1220                       # Per bank write bursts
system.mem_ctrls.perBankRdBursts::1               910                       # Per bank write bursts
system.mem_ctrls.perBankRdBursts::2               901                       # Per bank write bursts
system.mem_ctrls.perBankRdBursts::3              1325                       # Per bank write bursts
system.mem_ctrls.perBankRdBursts::4              1326                       # Per bank write bursts
system.mem_ctrls.perBankRdBursts::5              1251                       # Per bank write bursts
system.mem_ctrls.perBankRdBursts::6              1136                       # Per bank write bursts
system.mem_ctrls.perBankRdBursts::7              1261                       # Per bank write bursts
system.mem_ctrls.perBankRdBursts::8               818                       # Per bank write bursts
system.mem_ctrls.perBankRdBursts::9               818                       # Per bank write bursts
system.mem_ctrls.perBankRdBursts::10              678                       # Per bank write bursts
system.mem_ctrls.perBankRdBursts::11              551                       # Per bank write bursts
system.mem_ctrls.perBankRdBursts::12              511                       # Per bank write bursts
system.mem_ctrls.perBankRdBursts::13              544                       # Per bank write bursts
system.mem_ctrls.perBankRdBursts::14              875                       # Per bank write bursts
system.mem_ctrls.perBankRdBursts::15              963                       # Per bank write bursts
system.mem_ctrls.perBankWrBursts::0               196                       # Per bank write bursts
system.mem_ctrls.perBankWrBursts::1                33                       # Per bank write bursts
system.mem_ctrls.perBankWrBursts::2                19                       # Per bank write bursts
system.mem_ctrls.perBankWrBursts::3               251                       # Per bank write bursts
system.mem_ctrls.perBankWrBursts::4               207                       # Per bank write bursts
system.mem_ctrls.perBankWrBursts::5               151                       # Per bank write bursts
system.mem_ctrls.perBankWrBursts::6               104                       # Per bank write bursts
system.mem_ctrls.perBankWrBursts::7               160                       # Per bank write bursts
system.mem_ctrls.perBankWrBursts::8                24                       # Per bank write bursts
system.mem_ctrls.perBankWrBursts::9                28                       # Per bank write bursts
system.mem_ctrls.perBankWrBursts::10                6                       # Per bank write bursts
system.mem_ctrls.perBankWrBursts::11                7                       # Per bank write bursts
system.mem_ctrls.perBankWrBursts::12                0                       # Per bank write bursts
system.mem_ctrls.perBankWrBursts::13                0                       # Per bank write bursts
system.mem_ctrls.perBankWrBursts::14                6                       # Per bank write bursts
system.mem_ctrls.perBankWrBursts::15               65                       # Per bank write bursts
system.mem_ctrls.numRdRetry                         0                       # Number of times read queue was full causing retry
system.mem_ctrls.numWrRetry                         0                       # Number of times write queue was full causing retry
system.mem_ctrls.totGap                   15431634500                       # Total gap between requests
system.mem_ctrls.readPktSize::0                     0                       # Read request sizes (log2)
system.mem_ctrls.readPktSize::1                     0                       # Read request sizes (log2)
system.mem_ctrls.readPktSize::2                     0                       # Read request sizes (log2)
system.mem_ctrls.readPktSize::3                     0                       # Read request sizes (log2)
system.mem_ctrls.readPktSize::4                     0                       # Read request sizes (log2)
system.mem_ctrls.readPktSize::5                     0                       # Read request sizes (log2)
system.mem_ctrls.readPktSize::6                 15088                       # Read request sizes (log2)
system.mem_ctrls.writePktSize::0                    0                       # Write request sizes (log2)
system.mem_ctrls.writePktSize::1                    0                       # Write request sizes (log2)
system.mem_ctrls.writePktSize::2                    0                       # Write request sizes (log2)
system.mem_ctrls.writePktSize::3                    0                       # Write request sizes (log2)
system.mem_ctrls.writePktSize::4                    0                       # Write request sizes (log2)
system.mem_ctrls.writePktSize::5                    0                       # Write request sizes (log2)
system.mem_ctrls.writePktSize::6                 1277                       # Write request sizes (log2)
system.mem_ctrls.rdQLenPdf::0                   15088                       # What read queue length does an incoming req see
system.mem_ctrls.rdQLenPdf::1                       0                       # What read queue length does an incoming req see
system.mem_ctrls.rdQLenPdf::2                       0                       # What read queue length does an incoming req see
system.mem_ctrls.rdQLenPdf::3                       0                       # What read queue length does an incoming req see
system.mem_ctrls.rdQLenPdf::4                       0                       # What read queue length does an incoming req see
system.mem_ctrls.rdQLenPdf::5                       0                       # What read queue length does an incoming req see
system.mem_ctrls.rdQLenPdf::6                       0                       # What read queue length does an incoming req see
system.mem_ctrls.rdQLenPdf::7                       0                       # What read queue length does an incoming req see
system.mem_ctrls.rdQLenPdf::8                       0                       # What read queue length does an incoming req see
system.mem_ctrls.rdQLenPdf::9                       0                       # What read queue length does an incoming req see
system.mem_ctrls.rdQLenPdf::10                      0                       # What read queue length does an incoming req see
system.mem_ctrls.rdQLenPdf::11                      0                       # What read queue length does an incoming req see
system.mem_ctrls.rdQLenPdf::12                      0                       # What read queue length does an incoming req see
system.mem_ctrls.rdQLenPdf::13                      0                       # What read queue length does an incoming req see
system.mem_ctrls.rdQLenPdf::14                      0                       # What read queue length does an incoming req see
system.mem_ctrls.rdQLenPdf::15                      0                       # What read queue length does an incoming req see
system.mem_ctrls.rdQLenPdf::16                      0                       # What read queue length does an incoming req see
system.mem_ctrls.rdQLenPdf::17                      0                       # What read queue length does an incoming req see
system.mem_ctrls.rdQLenPdf::18                      0                       # What read queue length does an incoming req see
system.mem_ctrls.rdQLenPdf::19                      0                       # What read queue length does an incoming req see
system.mem_ctrls.rdQLenPdf::20                      0                       # What read queue length does an incoming req see
system.mem_ctrls.rdQLenPdf::21                      0                       # What read queue length does an incoming req see
system.mem_ctrls.rdQLenPdf::22                      0                       # What read queue length does an incoming req see
system.mem_ctrls.rdQLenPdf::23                      0                       # What read queue length does an incoming req see
system.mem_ctrls.rdQLenPdf::24                      0                       # What read queue length does an incoming req see
system.mem_ctrls.rdQLenPdf::25                      0                       # What read queue length does an incoming req see
system.mem_ctrls.rdQLenPdf::26                      0                       # What read queue length does an incoming req see
system.mem_ctrls.rdQLenPdf::27                      0                       # What read queue length does an incoming req see
system.mem_ctrls.rdQLenPdf::28                      0                       # What read queue length does an incoming req see
system.mem_ctrls.rdQLenPdf::29                      0                       # What read queue length does an incoming req see
system.mem_ctrls.rdQLenPdf::30                      0                       # What read queue length does an incoming req see
system.mem_ctrls.rdQLenPdf::31                      0                       # What read queue length does an incoming req see
system.mem_ctrls.wrQLenPdf::0                       1                       # What write queue length does an incoming req see
system.mem_ctrls.wrQLenPdf::1                       1                       # What write queue length does an incoming req see
system.mem_ctrls.wrQLenPdf::2                       1                       # What write queue length does an incoming req see
system.mem_ctrls.wrQLenPdf::3                       1                       # What write queue length does an incoming req see
system.mem_ctrls.wrQLenPdf::4                       1                       # What write queue length does an incoming req see
system.mem_ctrls.wrQLenPdf::5                       1                       # What write queue length does an incoming req see
system.mem_ctrls.wrQLenPdf::6                       1                       # What write queue length does an incoming req see
system.mem_ctrls.wrQLenPdf::7                       1                       # What write queue length does an incoming req see
system.mem_ctrls.wrQLenPdf::8                       1                       # What write queue length does an incoming req see
system.mem_ctrls.wrQLenPdf::9                       1                       # What write queue length does an incoming req see
system.mem_ctrls.wrQLenPdf::10                      1                       # What write queue length does an incoming req see
system.mem_ctrls.wrQLenPdf::11                      1                       # What write queue length does an incoming req see
system.mem_ctrls.wrQLenPdf::12                      1                       # What write queue length does an incoming req see
system.mem_ctrls.wrQLenPdf::13                      1                       # What write queue length does an incoming req see
system.mem_ctrls.wrQLenPdf::14                      1                       # What write queue length does an incoming req see
system.mem_ctrls.wrQLenPdf::15                     36                       # What write queue length does an incoming req see
system.mem_ctrls.wrQLenPdf::16                     38                       # What write queue length does an incoming req see
system.mem_ctrls.wrQLenPdf::17                     75                       # What write queue length does an incoming req see
system.mem_ctrls.wrQLenPdf::18                     75                       # What write queue length does an incoming req see
system.mem_ctrls.wrQLenPdf::19                     75                       # What write queue length does an incoming req see
system.mem_ctrls.wrQLenPdf::20                     74                       # What write queue length does an incoming req see
system.mem_ctrls.wrQLenPdf::21                     74                       # What write queue length does an incoming req see
system.mem_ctrls.wrQLenPdf::22                     74                       # What write queue length does an incoming req see
system.mem_ctrls.wrQLenPdf::23                     74                       # What write queue length does an incoming req see
system.mem_ctrls.wrQLenPdf::24                     74                       # What write queue length does an incoming req see
system.mem_ctrls.wrQLenPdf::25                     74                       # What write queue length does an incoming req see
system.mem_ctrls.wrQLenPdf::26                     74                       # What write queue length does an incoming req see
system.mem_ctrls.wrQLenPdf::27                     74                       # What write queue length does an incoming req see
system.mem_ctrls.wrQLenPdf::28                     75                       # What write queue length does an incoming req see
system.mem_ctrls.wrQLenPdf::29                     74                       # What write queue length does an incoming req see
system.mem_ctrls.wrQLenPdf::30                     74                       # What write queue length does an incoming req see
system.mem_ctrls.wrQLenPdf::31                     74                       # What write queue length does an incoming req see
system.mem_ctrls.wrQLenPdf::32                     74                       # What write queue length does an incoming req see
system.mem_ctrls.wrQLenPdf::33                      0                       # What write queue length does an incoming req see
system.mem_ctrls.wrQLenPdf::34                      0                       # What write queue length does an incoming req see
system.mem_ctrls.wrQLenPdf::35                      0                       # What write queue length does an incoming req see
system.mem_ctrls.wrQLenPdf::36                      0                       # What write queue length does an incoming req see
system.mem_ctrls.wrQLenPdf::37                      0                       # What write queue length does an incoming req see
system.mem_ctrls.wrQLenPdf::38                      0                       # What write queue length does an incoming req see
system.mem_ctrls.wrQLenPdf::39                      0                       # What write queue length does an incoming req see
system.mem_ctrls.wrQLenPdf::40                      0                       # What write queue length does an incoming req see
system.mem_ctrls.wrQLenPdf::41                      0                       # What write queue length does an incoming req see
system.mem_ctrls.wrQLenPdf::42                      0                       # What write queue length does an incoming req see
system.mem_ctrls.wrQLenPdf::43                      0                       # What write queue length does an incoming req see
system.mem_ctrls.wrQLenPdf::44                      0                       # What write queue length does an incoming req see
system.mem_ctrls.wrQLenPdf::45                      0                       # What write queue length does an incoming req see
system.mem_ctrls.wrQLenPdf::46                      0                       # What write queue length does an incoming req see
system.mem_ctrls.wrQLenPdf::47                      0                       # What write queue length does an incoming req see
system.mem_ctrls.wrQLenPdf::48                      0                       # What write queue length does an incoming req see
system.mem_ctrls.wrQLenPdf::49                      0                       # What write queue length does an incoming req see
system.mem_ctrls.wrQLenPdf::50                      0                       # What write queue length does an incoming req see
system.mem_ctrls.wrQLenPdf::51                      0                       # What write queue length does an incoming req see
system.mem_ctrls.wrQLenPdf::52                      0                       # What write queue length does an incoming req see
system.mem_ctrls.wrQLenPdf::53                      0                       # What write queue length does an incoming req see
system.mem_ctrls.wrQLenPdf::54                      0                       # What write queue length does an incoming req see
system.mem_ctrls.wrQLenPdf::55                      0                       # What write queue length does an incoming req see
system.mem_ctrls.wrQLenPdf::56                      0                       # What write queue length does an incoming req see
system.mem_ctrls.wrQLenPdf::57                      0                       # What write queue length does an incoming req see
system.mem_ctrls.wrQLenPdf::58                      0                       # What write queue length does an incoming req see
system.mem_ctrls.wrQLenPdf::59                      0                       # What write queue length does an incoming req see
system.mem_ctrls.wrQLenPdf::60                      0                       # What write queue length does an incoming req see
system.mem_ctrls.wrQLenPdf::61                      0                       # What write queue length does an incoming req see
system.mem_ctrls.wrQLenPdf::62                      0                       # What write queue length does an incoming req see
system.mem_ctrls.wrQLenPdf::63                      0                       # What write queue length does an incoming req see
system.mem_ctrls.bytesPerActivate::samples         6562                       # Bytes accessed per row activation
system.mem_ctrls.bytesPerActivate::mean    159.161231                       # Bytes accessed per row activation
system.mem_ctrls.bytesPerActivate::gmean   113.168924                       # Bytes accessed per row activation
system.mem_ctrls.bytesPerActivate::stdev   174.442678                       # Bytes accessed per row activation
system.mem_ctrls.bytesPerActivate::0-127         3506     53.43%     53.43% # Bytes accessed per row activation
system.mem_ctrls.bytesPerActivate::128-255         1786     27.22%     80.65% # Bytes accessed per row activation
system.mem_ctrls.bytesPerActivate::256-383          545      8.31%     88.95% # Bytes accessed per row activation
system.mem_ctrls.bytesPerActivate::384-511          363      5.53%     94.48% # Bytes accessed per row activation
system.mem_ctrls.bytesPerActivate::512-639          137      2.09%     96.57% # Bytes accessed per row activation
system.mem_ctrls.bytesPerActivate::640-767           64      0.98%     97.55% # Bytes accessed per row activation
system.mem_ctrls.bytesPerActivate::768-895           53      0.81%     98.35% # Bytes accessed per row activation
system.mem_ctrls.bytesPerActivate::896-1023           23      0.35%     98.70% # Bytes accessed per row activation
system.mem_ctrls.bytesPerActivate::1024-1151           85      1.30%    100.00% # Bytes accessed per row activation
system.mem_ctrls.bytesPerActivate::total         6562                       # Bytes accessed per row activation
system.mem_ctrls.rdPerTurnAround::samples           74                       # Reads before turning the bus around for writes
system.mem_ctrls.rdPerTurnAround::mean     203.824324                       # Reads before turning the bus around for writes
system.mem_ctrls.rdPerTurnAround::gmean     71.302101                       # Reads before turning the bus around for writes
system.mem_ctrls.rdPerTurnAround::stdev    832.259910                       # Reads before turning the bus around for writes
system.mem_ctrls.rdPerTurnAround::0-255            69     93.24%     93.24% # Reads before turning the bus around for writes
system.mem_ctrls.rdPerTurnAround::256-511            2      2.70%     95.95% # Reads before turning the bus around for writes
system.mem_ctrls.rdPerTurnAround::512-767            1      1.35%     97.30% # Reads before turning the bus around for writes
system.mem_ctrls.rdPerTurnAround::1536-1791            1      1.35%     98.65% # Reads before turning the bus around for writes
system.mem_ctrls.rdPerTurnAround::6912-7167            1      1.35%    100.00% # Reads before turning the bus around for writes
system.mem_ctrls.rdPerTurnAround::total            74                       # Reads before turning the bus around for writes
system.mem_ctrls.wrPerTurnAround::samples           74                       # Writes before turning the bus around for reads
system.mem_ctrls.wrPerTurnAround::mean      16.986486                       # Writes before turning the bus around for reads
system.mem_ctrls.wrPerTurnAround::gmean     16.956751                       # Writes before turning the bus around for reads
system.mem_ctrls.wrPerTurnAround::stdev      1.013515                       # Writes before turning the bus around for reads
system.mem_ctrls.wrPerTurnAround::16               37     50.00%     50.00% # Writes before turning the bus around for reads
system.mem_ctrls.wrPerTurnAround::17                2      2.70%     52.70% # Writes before turning the bus around for reads
system.mem_ctrls.wrPerTurnAround::18               34     45.95%     98.65% # Writes before turning the bus around for reads
system.mem_ctrls.wrPerTurnAround::19                1      1.35%    100.00% # Writes before turning the bus around for reads
system.mem_ctrls.wrPerTurnAround::total            74                       # Writes before turning the bus around for reads
system.mem_ctrls.totQLat                    165156500                       # Total ticks spent queuing
system.mem_ctrls.totMemAccLat               448056500                       # Total ticks spent from burst creation until serviced by the DRAM
system.mem_ctrls.totBusLat                   75440000                       # Total ticks spent in databus transfers
system.mem_ctrls.avgQLat                     10946.22                       # Average queueing delay per DRAM burst
system.mem_ctrls.avgBusLat                    5000.00                       # Average bus latency per DRAM burst
system.mem_ctrls.avgMemAccLat                29696.22                       # Average memory access latency per DRAM burst
system.mem_ctrls.avgRdBW                        62.57                       # Average DRAM read bandwidth in MiByte/s
system.mem_ctrls.avgWrBW                         5.21                       # Average achieved write bandwidth in MiByte/s
system.mem_ctrls.avgRdBWSys                     62.57                       # Average system read bandwidth in MiByte/s
system.mem_ctrls.avgWrBWSys                      5.30                       # Average system write bandwidth in MiByte/s
system.mem_ctrls.peakBW                      12800.00                       # Theoretical peak bandwidth in MiByte/s
system.mem_ctrls.busUtil                         0.53                       # Data bus utilization in percentage
system.mem_ctrls.busUtilRead                     0.49                       # Data bus utilization in percentage for reads
system.mem_ctrls.busUtilWrite                    0.04                       # Data bus utilization in percentage for writes
system.mem_ctrls.avgRdQLen                       1.00                       # Average read queue length when enqueuing
system.mem_ctrls.avgWrQLen                      11.64                       # Average write queue length when enqueuing
system.mem_ctrls.readRowHits                     8896                       # Number of row buffer hits during reads
system.mem_ctrls.writeRowHits                     875                       # Number of row buffer hits during writes
system.mem_ctrls.readRowHitRate                 58.96                       # Row buffer hit rate for reads
system.mem_ctrls.writeRowHitRate                68.52                       # Row buffer hit rate for writes
system.mem_ctrls.avgGap                     942965.75                       # Average gap between requests
system.mem_ctrls.pageHitRate                    59.71                       # Row buffer hit rate, read and write combined
system.mem_ctrls_0.actEnergy                 30708720                       # Energy for activate commands per rank (pJ)
system.mem_ctrls_0.preEnergy                 16755750                       # Energy for precharge commands per rank (pJ)
system.mem_ctrls_0.readEnergy                72329400                       # Energy for read commands per rank (pJ)
system.mem_ctrls_0.writeEnergy                6985440                       # Energy for write commands per rank (pJ)
system.mem_ctrls_0.refreshEnergy           1007457360                       # Energy for refresh commands per rank (pJ)
system.mem_ctrls_0.actBackEnergy           5477778090                       # Energy for active background per rank (pJ)
system.mem_ctrls_0.preBackEnergy           4449824250                       # Energy for precharge background per rank (pJ)
system.mem_ctrls_0.totalEnergy            11061839010                       # Total energy per rank (pJ)
system.mem_ctrls_0.averagePower            717.145361                       # Core power per rank (mW)
system.mem_ctrls_0.memoryStateTime::IDLE   7368920250                       # Time in different power states
system.mem_ctrls_0.memoryStateTime::REF     515060000                       # Time in different power states
system.mem_ctrls_0.memoryStateTime::PRE_PDN            0                       # Time in different power states
system.mem_ctrls_0.memoryStateTime::ACT    7540854750                       # Time in different power states
system.mem_ctrls_0.memoryStateTime::ACT_PDN            0                       # Time in different power states
system.mem_ctrls_1.actEnergy                 18620280                       # Energy for activate commands per rank (pJ)
system.mem_ctrls_1.preEnergy                 10159875                       # Energy for precharge commands per rank (pJ)
system.mem_ctrls_1.readEnergy                44818800                       # Energy for read commands per rank (pJ)
system.mem_ctrls_1.writeEnergy                 848880                       # Energy for write commands per rank (pJ)
system.mem_ctrls_1.refreshEnergy           1007457360                       # Energy for refresh commands per rank (pJ)
system.mem_ctrls_1.actBackEnergy           4396992255                       # Energy for active background per rank (pJ)
system.mem_ctrls_1.preBackEnergy           5397882000                       # Energy for precharge background per rank (pJ)
system.mem_ctrls_1.totalEnergy            10876779450                       # Total energy per rank (pJ)
system.mem_ctrls_1.averagePower            705.147844                       # Core power per rank (mW)
system.mem_ctrls_1.memoryStateTime::IDLE   8952921250                       # Time in different power states
system.mem_ctrls_1.memoryStateTime::REF     515060000                       # Time in different power states
system.mem_ctrls_1.memoryStateTime::PRE_PDN            0                       # Time in different power states
system.mem_ctrls_1.memoryStateTime::ACT    5957346750                       # Time in different power states
system.mem_ctrls_1.memoryStateTime::ACT_PDN            0                       # Time in different power states
system.cpu_voltage_domain.voltage                   1                       # Voltage in Volts
system.cpu_clk_domain.clock                       500                       # Clock period in ticks
system.cpu.dtb.fetch_hits                           0                       # ITB hits
system.cpu.dtb.fetch_misses                         0                       # ITB misses
system.cpu.dtb.fetch_acv                            0                       # ITB acv
system.cpu.dtb.fetch_accesses                       0                       # ITB accesses
system.cpu.dtb.read_hits                      1874617                       # DTB read hits
system.cpu.dtb.read_misses                        251                       # DTB read misses
system.cpu.dtb.read_acv                             0                       # DTB read access violations
system.cpu.dtb.read_accesses                  1874868                       # DTB read accesses
system.cpu.dtb.write_hits                      791704                       # DTB write hits
system.cpu.dtb.write_misses                       161                       # DTB write misses
system.cpu.dtb.write_acv                            0                       # DTB write access violations
system.cpu.dtb.write_accesses                  791865                       # DTB write accesses
system.cpu.dtb.data_hits                      2666321                       # DTB hits
system.cpu.dtb.data_misses                        412                       # DTB misses
system.cpu.dtb.data_acv                             0                       # DTB access violations
system.cpu.dtb.data_accesses                  2666733                       # DTB accesses
system.cpu.itb.fetch_hits                    11248307                       # ITB hits
system.cpu.itb.fetch_misses                       246                       # ITB misses
system.cpu.itb.fetch_acv                            0                       # ITB acv
system.cpu.itb.fetch_accesses                11248553                       # ITB accesses
system.cpu.itb.read_hits                            0                       # DTB read hits
system.cpu.itb.read_misses                          0                       # DTB read misses
system.cpu.itb.read_acv                             0                       # DTB read access violations
system.cpu.itb.read_accesses                        0                       # DTB read accesses
system.cpu.itb.write_hits                           0                       # DTB write hits
system.cpu.itb.write_misses                         0                       # DTB write misses
system.cpu.itb.write_acv                            0                       # DTB write access violations
system.cpu.itb.write_accesses                       0                       # DTB write accesses
system.cpu.itb.data_hits                            0                       # DTB hits
system.cpu.itb.data_misses                          0                       # DTB misses
system.cpu.itb.data_acv                             0                       # DTB access violations
system.cpu.itb.data_accesses                        0                       # DTB accesses
system.cpu.workload.num_syscalls                   24                       # Number of system calls
system.cpu.numCycles                         30863419                       # number of cpu cycles simulated
system.cpu.numWorkItemsStarted                      0                       # number of work items this cpu started
system.cpu.numWorkItemsCompleted                    0                       # number of work items this cpu completed
system.cpu.committedInsts                    11247895                       # Number of instructions committed
system.cpu.committedOps                      11247895                       # Number of ops (including micro ops) committed
system.cpu.num_int_alu_accesses              10514741                       # Number of integer alu accesses
system.cpu.num_fp_alu_accesses                 141000                       # Number of float alu accesses
system.cpu.num_func_calls                      402531                       # number of times a function call or return occured
system.cpu.num_conditional_control_insts      1536192                       # number of instructions that are conditional controls
system.cpu.num_int_insts                     10514741                       # number of integer instructions
system.cpu.num_fp_insts                        141000                       # number of float instructions
system.cpu.num_int_register_reads            13983811                       # number of times the integer registers were read
system.cpu.num_int_register_writes            7918881                       # number of times the integer registers were written
system.cpu.num_fp_register_reads                94023                       # number of times the floating registers were read
system.cpu.num_fp_register_writes               93952                       # number of times the floating registers were written
system.cpu.num_mem_refs                       2666733                       # number of memory refs
system.cpu.num_load_insts                     1874868                       # Number of load instructions
system.cpu.num_store_insts                     791865                       # Number of store instructions
system.cpu.num_idle_cycles                   0.002000                       # Number of idle cycles
system.cpu.num_busy_cycles               30863418.998000                       # Number of busy cycles
system.cpu.not_idle_fraction                 1.000000                       # Percentage of non-idle cycles
system.cpu.idle_fraction                     0.000000                       # Percentage of idle cycles
system.cpu.Branches                           2043087                       # Number of branches fetched
system.cpu.op_class::No_OpClass                595579      5.29%      5.29% # Class of executed instruction
system.cpu.op_class::IntAlu                   7883197     70.08%     75.38% # Class of executed instruction
system.cpu.op_class::IntMult                    17628      0.16%     75.53% # Class of executed instruction
system.cpu.op_class::IntDiv                         0      0.00%     75.53% # Class of executed instruction
system.cpu.op_class::FloatAdd                   46977      0.42%     75.95% # Class of executed instruction
system.cpu.op_class::FloatCmp                       0      0.00%     75.95% # Class of executed instruction
system.cpu.op_class::FloatCvt                   28187      0.25%     76.20% # Class of executed instruction
system.cpu.op_class::FloatMult                      0      0.00%     76.20% # Class of executed instruction
system.cpu.op_class::FloatDiv                    9395      0.08%     76.29% # Class of executed instruction
system.cpu.op_class::FloatSqrt                      0      0.00%     76.29% # Class of executed instruction
system.cpu.op_class::SimdAdd                        0      0.00%     76.29% # Class of executed instruction
system.cpu.op_class::SimdAddAcc                     0      0.00%     76.29% # Class of executed instruction
system.cpu.op_class::SimdAlu                        0      0.00%     76.29% # Class of executed instruction
system.cpu.op_class::SimdCmp                        0      0.00%     76.29% # Class of executed instruction
system.cpu.op_class::SimdCvt                        0      0.00%     76.29% # Class of executed instruction
system.cpu.op_class::SimdMisc                       0      0.00%     76.29% # Class of executed instruction
system.cpu.op_class::SimdMult                       0      0.00%     76.29% # Class of executed instruction
system.cpu.op_class::SimdMultAcc                    0      0.00%     76.29% # Class of executed instruction
system.cpu.op_class::SimdShift                      0      0.00%     76.29% # Class of executed instruction
system.cpu.op_class::SimdShiftAcc                   0      0.00%     76.29% # Class of executed instruction
system.cpu.op_class::SimdSqrt                       0      0.00%     76.29% # Class of executed instruction
system.cpu.op_class::SimdFloatAdd                   0      0.00%     76.29% # Class of executed instruction
system.cpu.op_class::SimdFloatAlu                   0      0.00%     76.29% # Class of executed instruction
system.cpu.op_class::SimdFloatCmp                   0      0.00%     76.29% # Class of executed instruction
system.cpu.op_class::SimdFloatCvt                   0      0.00%     76.29% # Class of executed instruction
system.cpu.op_class::SimdFloatDiv                   0      0.00%     76.29% # Class of executed instruction
system.cpu.op_class::SimdFloatMisc                  0      0.00%     76.29% # Class of executed instruction
system.cpu.op_class::SimdFloatMult                  0      0.00%     76.29% # Class of executed instruction
system.cpu.op_class::SimdFloatMultAcc               0      0.00%     76.29% # Class of executed instruction
system.cpu.op_class::SimdFloatSqrt                  0      0.00%     76.29% # Class of executed instruction
system.cpu.op_class::MemRead                  1875478     16.67%     92.96% # Class of executed instruction
system.cpu.op_class::MemWrite                  791866      7.04%    100.00% # Class of executed instruction
system.cpu.op_class::IprAccess                      0      0.00%    100.00% # Class of executed instruction
system.cpu.op_class::InstPrefetch                   0      0.00%    100.00% # Class of executed instruction
system.cpu.op_class::total                   11248307                       # Class of executed instruction
system.cpu.dcache.tags.replacements             14802                       # number of replacements
system.cpu.dcache.tags.tagsinuse           986.943552                       # Cycle average of tags in use
system.cpu.dcache.tags.total_refs             2650495                       # Total number of references to valid blocks.
system.cpu.dcache.tags.sampled_refs             15826                       # Sample count of references to valid blocks.
system.cpu.dcache.tags.avg_refs            167.477253                       # Average number of references to valid blocks.
system.cpu.dcache.tags.warmup_cycle        6822256500                       # Cycle when the warmup percentage was hit.
system.cpu.dcache.tags.occ_blocks::cpu.data   986.943552                       # Average occupied blocks per requestor
system.cpu.dcache.tags.occ_percent::cpu.data     0.963812                       # Average percentage of cache occupancy
system.cpu.dcache.tags.occ_percent::total     0.963812                       # Average percentage of cache occupancy
system.cpu.dcache.tags.occ_task_id_blocks::1024         1024                       # Occupied blocks per task id
system.cpu.dcache.tags.age_task_id_blocks_1024::0           53                       # Occupied blocks per task id
system.cpu.dcache.tags.age_task_id_blocks_1024::1          288                       # Occupied blocks per task id
system.cpu.dcache.tags.age_task_id_blocks_1024::2          626                       # Occupied blocks per task id
system.cpu.dcache.tags.age_task_id_blocks_1024::3           57                       # Occupied blocks per task id
system.cpu.dcache.tags.occ_task_id_percent::1024            1                       # Percentage of cache occupancy per task id
system.cpu.dcache.tags.tag_accesses           5348468                       # Number of tag accesses
system.cpu.dcache.tags.data_accesses          5348468                       # Number of data accesses
system.cpu.dcache.ReadReq_hits::cpu.data      1869893                       # number of ReadReq hits
system.cpu.dcache.ReadReq_hits::total         1869893                       # number of ReadReq hits
system.cpu.dcache.WriteReq_hits::cpu.data       779386                       # number of WriteReq hits
system.cpu.dcache.WriteReq_hits::total         779386                       # number of WriteReq hits
system.cpu.dcache.LoadLockedReq_hits::cpu.data          606                       # number of LoadLockedReq hits
system.cpu.dcache.LoadLockedReq_hits::total          606                       # number of LoadLockedReq hits
system.cpu.dcache.StoreCondReq_hits::cpu.data          610                       # number of StoreCondReq hits
system.cpu.dcache.StoreCondReq_hits::total          610                       # number of StoreCondReq hits
system.cpu.dcache.demand_hits::cpu.data       2649279                       # number of demand (read+write) hits
system.cpu.dcache.demand_hits::total          2649279                       # number of demand (read+write) hits
system.cpu.dcache.overall_hits::cpu.data      2649279                       # number of overall hits
system.cpu.dcache.overall_hits::total         2649279                       # number of overall hits
system.cpu.dcache.ReadReq_misses::cpu.data         4114                       # number of ReadReq misses
system.cpu.dcache.ReadReq_misses::total          4114                       # number of ReadReq misses
system.cpu.dcache.WriteReq_misses::cpu.data        11708                       # number of WriteReq misses
system.cpu.dcache.WriteReq_misses::total        11708                       # number of WriteReq misses
system.cpu.dcache.LoadLockedReq_misses::cpu.data            4                       # number of LoadLockedReq misses
system.cpu.dcache.LoadLockedReq_misses::total            4                       # number of LoadLockedReq misses
system.cpu.dcache.demand_misses::cpu.data        15822                       # number of demand (read+write) misses
system.cpu.dcache.demand_misses::total          15822                       # number of demand (read+write) misses
system.cpu.dcache.overall_misses::cpu.data        15822                       # number of overall misses
system.cpu.dcache.overall_misses::total         15822                       # number of overall misses
system.cpu.dcache.ReadReq_miss_latency::cpu.data    151069000                       # number of ReadReq miss cycles
system.cpu.dcache.ReadReq_miss_latency::total    151069000                       # number of ReadReq miss cycles
system.cpu.dcache.WriteReq_miss_latency::cpu.data    897364500                       # number of WriteReq miss cycles
system.cpu.dcache.WriteReq_miss_latency::total    897364500                       # number of WriteReq miss cycles
system.cpu.dcache.LoadLockedReq_miss_latency::cpu.data       138000                       # number of LoadLockedReq miss cycles
system.cpu.dcache.LoadLockedReq_miss_latency::total       138000                       # number of LoadLockedReq miss cycles
system.cpu.dcache.demand_miss_latency::cpu.data   1048433500                       # number of demand (read+write) miss cycles
system.cpu.dcache.demand_miss_latency::total   1048433500                       # number of demand (read+write) miss cycles
system.cpu.dcache.overall_miss_latency::cpu.data   1048433500                       # number of overall miss cycles
system.cpu.dcache.overall_miss_latency::total   1048433500                       # number of overall miss cycles
system.cpu.dcache.ReadReq_accesses::cpu.data      1874007                       # number of ReadReq accesses(hits+misses)
system.cpu.dcache.ReadReq_accesses::total      1874007                       # number of ReadReq accesses(hits+misses)
system.cpu.dcache.WriteReq_accesses::cpu.data       791094                       # number of WriteReq accesses(hits+misses)
system.cpu.dcache.WriteReq_accesses::total       791094                       # number of WriteReq accesses(hits+misses)
system.cpu.dcache.LoadLockedReq_accesses::cpu.data          610                       # number of LoadLockedReq accesses(hits+misses)
system.cpu.dcache.LoadLockedReq_accesses::total          610                       # number of LoadLockedReq accesses(hits+misses)
system.cpu.dcache.StoreCondReq_accesses::cpu.data          610                       # number of StoreCondReq accesses(hits+misses)
system.cpu.dcache.StoreCondReq_accesses::total          610                       # number of StoreCondReq accesses(hits+misses)
system.cpu.dcache.demand_accesses::cpu.data      2665101                       # number of demand (read+write) accesses
system.cpu.dcache.demand_accesses::total      2665101                       # number of demand (read+write) accesses
system.cpu.dcache.overall_accesses::cpu.data      2665101                       # number of overall (read+write) accesses
system.cpu.dcache.overall_accesses::total      2665101                       # number of overall (read+write) accesses
system.cpu.dcache.ReadReq_miss_rate::cpu.data     0.002195                       # miss rate for ReadReq accesses
system.cpu.dcache.ReadReq_miss_rate::total     0.002195                       # miss rate for ReadReq accesses
system.cpu.dcache.WriteReq_miss_rate::cpu.data     0.014800                       # miss rate for WriteReq accesses
system.cpu.dcache.WriteReq_miss_rate::total     0.014800                       # miss rate for WriteReq accesses
system.cpu.dcache.LoadLockedReq_miss_rate::cpu.data     0.006557                       # miss rate for LoadLockedReq accesses
system.cpu.dcache.LoadLockedReq_miss_rate::total     0.006557                       # miss rate for LoadLockedReq accesses
system.cpu.dcache.demand_miss_rate::cpu.data     0.005937                       # miss rate for demand accesses
system.cpu.dcache.demand_miss_rate::total     0.005937                       # miss rate for demand accesses
system.cpu.dcache.overall_miss_rate::cpu.data     0.005937                       # miss rate for overall accesses
system.cpu.dcache.overall_miss_rate::total     0.005937                       # miss rate for overall accesses
system.cpu.dcache.ReadReq_avg_miss_latency::cpu.data 36720.709772                       # average ReadReq miss latency
system.cpu.dcache.ReadReq_avg_miss_latency::total 36720.709772                       # average ReadReq miss latency
system.cpu.dcache.WriteReq_avg_miss_latency::cpu.data 76645.413393                       # average WriteReq miss latency
system.cpu.dcache.WriteReq_avg_miss_latency::total 76645.413393                       # average WriteReq miss latency
system.cpu.dcache.LoadLockedReq_avg_miss_latency::cpu.data        34500                       # average LoadLockedReq miss latency
system.cpu.dcache.LoadLockedReq_avg_miss_latency::total        34500                       # average LoadLockedReq miss latency
system.cpu.dcache.demand_avg_miss_latency::cpu.data 66264.283908                       # average overall miss latency
system.cpu.dcache.demand_avg_miss_latency::total 66264.283908                       # average overall miss latency
system.cpu.dcache.overall_avg_miss_latency::cpu.data 66264.283908                       # average overall miss latency
system.cpu.dcache.overall_avg_miss_latency::total 66264.283908                       # average overall miss latency
system.cpu.dcache.blocked_cycles::no_mshrs            0                       # number of cycles access was blocked
system.cpu.dcache.blocked_cycles::no_targets            0                       # number of cycles access was blocked
system.cpu.dcache.blocked::no_mshrs                 0                       # number of cycles access was blocked
system.cpu.dcache.blocked::no_targets               0                       # number of cycles access was blocked
system.cpu.dcache.avg_blocked_cycles::no_mshrs          nan                       # average number of cycles each access was blocked
system.cpu.dcache.avg_blocked_cycles::no_targets          nan                       # average number of cycles each access was blocked
system.cpu.dcache.fast_writes                       0                       # number of fast writes performed
system.cpu.dcache.cache_copies                      0                       # number of cache copies performed
system.cpu.dcache.writebacks::writebacks        13299                       # number of writebacks
system.cpu.dcache.writebacks::total             13299                       # number of writebacks
system.cpu.dcache.ReadReq_mshr_misses::cpu.data         4114                       # number of ReadReq MSHR misses
system.cpu.dcache.ReadReq_mshr_misses::total         4114                       # number of ReadReq MSHR misses
system.cpu.dcache.WriteReq_mshr_misses::cpu.data        11708                       # number of WriteReq MSHR misses
system.cpu.dcache.WriteReq_mshr_misses::total        11708                       # number of WriteReq MSHR misses
system.cpu.dcache.LoadLockedReq_mshr_misses::cpu.data            4                       # number of LoadLockedReq MSHR misses
system.cpu.dcache.LoadLockedReq_mshr_misses::total            4                       # number of LoadLockedReq MSHR misses
system.cpu.dcache.demand_mshr_misses::cpu.data        15822                       # number of demand (read+write) MSHR misses
system.cpu.dcache.demand_mshr_misses::total        15822                       # number of demand (read+write) MSHR misses
system.cpu.dcache.overall_mshr_misses::cpu.data        15822                       # number of overall MSHR misses
system.cpu.dcache.overall_mshr_misses::total        15822                       # number of overall MSHR misses
system.cpu.dcache.ReadReq_mshr_miss_latency::cpu.data    146955000                       # number of ReadReq MSHR miss cycles
system.cpu.dcache.ReadReq_mshr_miss_latency::total    146955000                       # number of ReadReq MSHR miss cycles
system.cpu.dcache.WriteReq_mshr_miss_latency::cpu.data    885656500                       # number of WriteReq MSHR miss cycles
system.cpu.dcache.WriteReq_mshr_miss_latency::total    885656500                       # number of WriteReq MSHR miss cycles
system.cpu.dcache.LoadLockedReq_mshr_miss_latency::cpu.data       134000                       # number of LoadLockedReq MSHR miss cycles
system.cpu.dcache.LoadLockedReq_mshr_miss_latency::total       134000                       # number of LoadLockedReq MSHR miss cycles
system.cpu.dcache.demand_mshr_miss_latency::cpu.data   1032611500                       # number of demand (read+write) MSHR miss cycles
system.cpu.dcache.demand_mshr_miss_latency::total   1032611500                       # number of demand (read+write) MSHR miss cycles
system.cpu.dcache.overall_mshr_miss_latency::cpu.data   1032611500                       # number of overall MSHR miss cycles
system.cpu.dcache.overall_mshr_miss_latency::total   1032611500                       # number of overall MSHR miss cycles
system.cpu.dcache.ReadReq_mshr_miss_rate::cpu.data     0.002195                       # mshr miss rate for ReadReq accesses
system.cpu.dcache.ReadReq_mshr_miss_rate::total     0.002195                       # mshr miss rate for ReadReq accesses
system.cpu.dcache.WriteReq_mshr_miss_rate::cpu.data     0.014800                       # mshr miss rate for WriteReq accesses
system.cpu.dcache.WriteReq_mshr_miss_rate::total     0.014800                       # mshr miss rate for WriteReq accesses
system.cpu.dcache.LoadLockedReq_mshr_miss_rate::cpu.data     0.006557                       # mshr miss rate for LoadLockedReq accesses
system.cpu.dcache.LoadLockedReq_mshr_miss_rate::total     0.006557                       # mshr miss rate for LoadLockedReq accesses
system.cpu.dcache.demand_mshr_miss_rate::cpu.data     0.005937                       # mshr miss rate for demand accesses
system.cpu.dcache.demand_mshr_miss_rate::total     0.005937                       # mshr miss rate for demand accesses
system.cpu.dcache.overall_mshr_miss_rate::cpu.data     0.005937                       # mshr miss rate for overall accesses
system.cpu.dcache.overall_mshr_miss_rate::total     0.005937                       # mshr miss rate for overall accesses
system.cpu.dcache.ReadReq_avg_mshr_miss_latency::cpu.data 35720.709772                       # average ReadReq mshr miss latency
system.cpu.dcache.ReadReq_avg_mshr_miss_latency::total 35720.709772                       # average ReadReq mshr miss latency
system.cpu.dcache.WriteReq_avg_mshr_miss_latency::cpu.data 75645.413393                       # average WriteReq mshr miss latency
system.cpu.dcache.WriteReq_avg_mshr_miss_latency::total 75645.413393                       # average WriteReq mshr miss latency
system.cpu.dcache.LoadLockedReq_avg_mshr_miss_latency::cpu.data        33500                       # average LoadLockedReq mshr miss latency
system.cpu.dcache.LoadLockedReq_avg_mshr_miss_latency::total        33500                       # average LoadLockedReq mshr miss latency
system.cpu.dcache.demand_avg_mshr_miss_latency::cpu.data 65264.283908                       # average overall mshr miss latency
system.cpu.dcache.demand_avg_mshr_miss_latency::total 65264.283908                       # average overall mshr miss latency
system.cpu.dcache.overall_avg_mshr_miss_latency::cpu.data 65264.283908                       # average overall mshr miss latency
system.cpu.dcache.overall_avg_mshr_miss_latency::total 65264.283908                       # average overall mshr miss latency
system.cpu.dcache.no_allocate_misses                0                       # Number of misses that were no-allocate
system.cpu.icache.tags.replacements             23250                       # number of replacements
system.cpu.icache.tags.tagsinuse           499.416627                       # Cycle average of tags in use
system.cpu.icache.tags.total_refs            11224545                       # Total number of references to valid blocks.
system.cpu.icache.tags.sampled_refs             23762                       # Sample count of references to valid blocks.
system.cpu.icache.tags.avg_refs            472.373748                       # Average number of references to valid blocks.
system.cpu.icache.tags.warmup_cycle       13612407500                       # Cycle when the warmup percentage was hit.
system.cpu.icache.tags.occ_blocks::cpu.inst   499.416627                       # Average occupied blocks per requestor
system.cpu.icache.tags.occ_percent::cpu.inst     0.975423                       # Average percentage of cache occupancy
system.cpu.icache.tags.occ_percent::total     0.975423                       # Average percentage of cache occupancy
system.cpu.icache.tags.occ_task_id_blocks::1024          512                       # Occupied blocks per task id
system.cpu.icache.tags.age_task_id_blocks_1024::0           73                       # Occupied blocks per task id
system.cpu.icache.tags.age_task_id_blocks_1024::1          230                       # Occupied blocks per task id
system.cpu.icache.tags.age_task_id_blocks_1024::2          109                       # Occupied blocks per task id
system.cpu.icache.tags.age_task_id_blocks_1024::3           96                       # Occupied blocks per task id
system.cpu.icache.tags.age_task_id_blocks_1024::4            4                       # Occupied blocks per task id
system.cpu.icache.tags.occ_task_id_percent::1024            1                       # Percentage of cache occupancy per task id
system.cpu.icache.tags.tag_accesses          22520376                       # Number of tag accesses
system.cpu.icache.tags.data_accesses         22520376                       # Number of data accesses
system.cpu.icache.ReadReq_hits::cpu.inst     11224545                       # number of ReadReq hits
system.cpu.icache.ReadReq_hits::total        11224545                       # number of ReadReq hits
system.cpu.icache.demand_hits::cpu.inst      11224545                       # number of demand (read+write) hits
system.cpu.icache.demand_hits::total         11224545                       # number of demand (read+write) hits
system.cpu.icache.overall_hits::cpu.inst     11224545                       # number of overall hits
system.cpu.icache.overall_hits::total        11224545                       # number of overall hits
system.cpu.icache.ReadReq_misses::cpu.inst        23762                       # number of ReadReq misses
system.cpu.icache.ReadReq_misses::total         23762                       # number of ReadReq misses
system.cpu.icache.demand_misses::cpu.inst        23762                       # number of demand (read+write) misses
system.cpu.icache.demand_misses::total          23762                       # number of demand (read+write) misses
system.cpu.icache.overall_misses::cpu.inst        23762                       # number of overall misses
system.cpu.icache.overall_misses::total         23762                       # number of overall misses
system.cpu.icache.ReadReq_miss_latency::cpu.inst    508098000                       # number of ReadReq miss cycles
system.cpu.icache.ReadReq_miss_latency::total    508098000                       # number of ReadReq miss cycles
system.cpu.icache.demand_miss_latency::cpu.inst    508098000                       # number of demand (read+write) miss cycles
system.cpu.icache.demand_miss_latency::total    508098000                       # number of demand (read+write) miss cycles
system.cpu.icache.overall_miss_latency::cpu.inst    508098000                       # number of overall miss cycles
system.cpu.icache.overall_miss_latency::total    508098000                       # number of overall miss cycles
system.cpu.icache.ReadReq_accesses::cpu.inst     11248307                       # number of ReadReq accesses(hits+misses)
system.cpu.icache.ReadReq_accesses::total     11248307                       # number of ReadReq accesses(hits+misses)
system.cpu.icache.demand_accesses::cpu.inst     11248307                       # number of demand (read+write) accesses
system.cpu.icache.demand_accesses::total     11248307                       # number of demand (read+write) accesses
system.cpu.icache.overall_accesses::cpu.inst     11248307                       # number of overall (read+write) accesses
system.cpu.icache.overall_accesses::total     11248307                       # number of overall (read+write) accesses
system.cpu.icache.ReadReq_miss_rate::cpu.inst     0.002112                       # miss rate for ReadReq accesses
system.cpu.icache.ReadReq_miss_rate::total     0.002112                       # miss rate for ReadReq accesses
system.cpu.icache.demand_miss_rate::cpu.inst     0.002112                       # miss rate for demand accesses
system.cpu.icache.demand_miss_rate::total     0.002112                       # miss rate for demand accesses
system.cpu.icache.overall_miss_rate::cpu.inst     0.002112                       # miss rate for overall accesses
system.cpu.icache.overall_miss_rate::total     0.002112                       # miss rate for overall accesses
system.cpu.icache.ReadReq_avg_miss_latency::cpu.inst 21382.796061                       # average ReadReq miss latency
system.cpu.icache.ReadReq_avg_miss_latency::total 21382.796061                       # average ReadReq miss latency
system.cpu.icache.demand_avg_miss_latency::cpu.inst 21382.796061                       # average overall miss latency
system.cpu.icache.demand_avg_miss_latency::total 21382.796061                       # average overall miss latency
system.cpu.icache.overall_avg_miss_latency::cpu.inst 21382.796061                       # average overall miss latency
system.cpu.icache.overall_avg_miss_latency::total 21382.796061                       # average overall miss latency
system.cpu.icache.blocked_cycles::no_mshrs            0                       # number of cycles access was blocked
system.cpu.icache.blocked_cycles::no_targets            0                       # number of cycles access was blocked
system.cpu.icache.blocked::no_mshrs                 0                       # number of cycles access was blocked
system.cpu.icache.blocked::no_targets               0                       # number of cycles access was blocked
system.cpu.icache.avg_blocked_cycles::no_mshrs          nan                       # average number of cycles each access was blocked
system.cpu.icache.avg_blocked_cycles::no_targets          nan                       # average number of cycles each access was blocked
system.cpu.icache.fast_writes                       0                       # number of fast writes performed
system.cpu.icache.cache_copies                      0                       # number of cache copies performed
system.cpu.icache.ReadReq_mshr_misses::cpu.inst        23762                       # number of ReadReq MSHR misses
system.cpu.icache.ReadReq_mshr_misses::total        23762                       # number of ReadReq MSHR misses
system.cpu.icache.demand_mshr_misses::cpu.inst        23762                       # number of demand (read+write) MSHR misses
system.cpu.icache.demand_mshr_misses::total        23762                       # number of demand (read+write) MSHR misses
system.cpu.icache.overall_mshr_misses::cpu.inst        23762                       # number of overall MSHR misses
system.cpu.icache.overall_mshr_misses::total        23762                       # number of overall MSHR misses
system.cpu.icache.ReadReq_mshr_miss_latency::cpu.inst    484336000                       # number of ReadReq MSHR miss cycles
system.cpu.icache.ReadReq_mshr_miss_latency::total    484336000                       # number of ReadReq MSHR miss cycles
system.cpu.icache.demand_mshr_miss_latency::cpu.inst    484336000                       # number of demand (read+write) MSHR miss cycles
system.cpu.icache.demand_mshr_miss_latency::total    484336000                       # number of demand (read+write) MSHR miss cycles
system.cpu.icache.overall_mshr_miss_latency::cpu.inst    484336000                       # number of overall MSHR miss cycles
system.cpu.icache.overall_mshr_miss_latency::total    484336000                       # number of overall MSHR miss cycles
system.cpu.icache.ReadReq_mshr_miss_rate::cpu.inst     0.002112                       # mshr miss rate for ReadReq accesses
system.cpu.icache.ReadReq_mshr_miss_rate::total     0.002112                       # mshr miss rate for ReadReq accesses
system.cpu.icache.demand_mshr_miss_rate::cpu.inst     0.002112                       # mshr miss rate for demand accesses
system.cpu.icache.demand_mshr_miss_rate::total     0.002112                       # mshr miss rate for demand accesses
system.cpu.icache.overall_mshr_miss_rate::cpu.inst     0.002112                       # mshr miss rate for overall accesses
system.cpu.icache.overall_mshr_miss_rate::total     0.002112                       # mshr miss rate for overall accesses
system.cpu.icache.ReadReq_avg_mshr_miss_latency::cpu.inst 20382.796061                       # average ReadReq mshr miss latency
system.cpu.icache.ReadReq_avg_mshr_miss_latency::total 20382.796061                       # average ReadReq mshr miss latency
system.cpu.icache.demand_avg_mshr_miss_latency::cpu.inst 20382.796061                       # average overall mshr miss latency
system.cpu.icache.demand_avg_mshr_miss_latency::total 20382.796061                       # average overall mshr miss latency
system.cpu.icache.overall_avg_mshr_miss_latency::cpu.inst 20382.796061                       # average overall mshr miss latency
system.cpu.icache.overall_avg_mshr_miss_latency::total 20382.796061                       # average overall mshr miss latency
system.cpu.icache.no_allocate_misses                0                       # Number of misses that were no-allocate
system.l2.tags.replacements                      1856                       # number of replacements
system.l2.tags.tagsinuse                  4865.628248                       # Cycle average of tags in use
system.l2.tags.total_refs                       51349                       # Total number of references to valid blocks.
system.l2.tags.sampled_refs                     14474                       # Sample count of references to valid blocks.
system.l2.tags.avg_refs                      3.547672                       # Average number of references to valid blocks.
system.l2.tags.warmup_cycle                         0                       # Cycle when the warmup percentage was hit.
system.l2.tags.occ_blocks::writebacks     3144.166620                       # Average occupied blocks per requestor
system.l2.tags.occ_blocks::cpu.inst       1300.347998                       # Average occupied blocks per requestor
system.l2.tags.occ_blocks::cpu.data        421.113630                       # Average occupied blocks per requestor
system.l2.tags.occ_percent::writebacks       0.191905                       # Average percentage of cache occupancy
system.l2.tags.occ_percent::cpu.inst         0.079367                       # Average percentage of cache occupancy
system.l2.tags.occ_percent::cpu.data         0.025703                       # Average percentage of cache occupancy
system.l2.tags.occ_percent::total            0.296974                       # Average percentage of cache occupancy
system.l2.tags.occ_task_id_blocks::1024         12618                       # Occupied blocks per task id
system.l2.tags.age_task_id_blocks_1024::0          118                       # Occupied blocks per task id
system.l2.tags.age_task_id_blocks_1024::1          590                       # Occupied blocks per task id
system.l2.tags.age_task_id_blocks_1024::2         1737                       # Occupied blocks per task id
system.l2.tags.age_task_id_blocks_1024::3         8748                       # Occupied blocks per task id
system.l2.tags.age_task_id_blocks_1024::4         1425                       # Occupied blocks per task id
system.l2.tags.occ_task_id_percent::1024     0.770142                       # Percentage of cache occupancy per task id
system.l2.tags.tag_accesses                    336742                       # Number of tag accesses
system.l2.tags.data_accesses                   336742                       # Number of data accesses
system.l2.Writeback_hits::writebacks            13299                       # number of Writeback hits
system.l2.Writeback_hits::total                 13299                       # number of Writeback hits
system.l2.ReadExReq_hits::cpu.data                864                       # number of ReadExReq hits
system.l2.ReadExReq_hits::total                   864                       # number of ReadExReq hits
system.l2.ReadCleanReq_hits::cpu.inst           20791                       # number of ReadCleanReq hits
system.l2.ReadCleanReq_hits::total              20791                       # number of ReadCleanReq hits
system.l2.ReadSharedReq_hits::cpu.data           2845                       # number of ReadSharedReq hits
system.l2.ReadSharedReq_hits::total              2845                       # number of ReadSharedReq hits
system.l2.demand_hits::cpu.inst                 20791                       # number of demand (read+write) hits
system.l2.demand_hits::cpu.data                  3709                       # number of demand (read+write) hits
system.l2.demand_hits::total                    24500                       # number of demand (read+write) hits
system.l2.overall_hits::cpu.inst                20791                       # number of overall hits
system.l2.overall_hits::cpu.data                 3709                       # number of overall hits
system.l2.overall_hits::total                   24500                       # number of overall hits
system.l2.ReadExReq_misses::cpu.data            10844                       # number of ReadExReq misses
system.l2.ReadExReq_misses::total               10844                       # number of ReadExReq misses
system.l2.ReadCleanReq_misses::cpu.inst          2971                       # number of ReadCleanReq misses
system.l2.ReadCleanReq_misses::total             2971                       # number of ReadCleanReq misses
system.l2.ReadSharedReq_misses::cpu.data         1273                       # number of ReadSharedReq misses
system.l2.ReadSharedReq_misses::total            1273                       # number of ReadSharedReq misses
system.l2.demand_misses::cpu.inst                2971                       # number of demand (read+write) misses
system.l2.demand_misses::cpu.data               12117                       # number of demand (read+write) misses
system.l2.demand_misses::total                  15088                       # number of demand (read+write) misses
system.l2.overall_misses::cpu.inst               2971                       # number of overall misses
system.l2.overall_misses::cpu.data              12117                       # number of overall misses
system.l2.overall_misses::total                 15088                       # number of overall misses
system.l2.ReadExReq_miss_latency::cpu.data    859022500                       # number of ReadExReq miss cycles
system.l2.ReadExReq_miss_latency::total     859022500                       # number of ReadExReq miss cycles
system.l2.ReadCleanReq_miss_latency::cpu.inst    230366000                       # number of ReadCleanReq miss cycles
system.l2.ReadCleanReq_miss_latency::total    230366000                       # number of ReadCleanReq miss cycles
system.l2.ReadSharedReq_miss_latency::cpu.data    111039500                       # number of ReadSharedReq miss cycles
system.l2.ReadSharedReq_miss_latency::total    111039500                       # number of ReadSharedReq miss cycles
system.l2.demand_miss_latency::cpu.inst     230366000                       # number of demand (read+write) miss cycles
system.l2.demand_miss_latency::cpu.data     970062000                       # number of demand (read+write) miss cycles
system.l2.demand_miss_latency::total       1200428000                       # number of demand (read+write) miss cycles
system.l2.overall_miss_latency::cpu.inst    230366000                       # number of overall miss cycles
system.l2.overall_miss_latency::cpu.data    970062000                       # number of overall miss cycles
system.l2.overall_miss_latency::total      1200428000                       # number of overall miss cycles
system.l2.Writeback_accesses::writebacks        13299                       # number of Writeback accesses(hits+misses)
system.l2.Writeback_accesses::total             13299                       # number of Writeback accesses(hits+misses)
system.l2.ReadExReq_accesses::cpu.data          11708                       # number of ReadExReq accesses(hits+misses)
system.l2.ReadExReq_accesses::total             11708                       # number of ReadExReq accesses(hits+misses)
system.l2.ReadCleanReq_accesses::cpu.inst        23762                       # number of ReadCleanReq accesses(hits+misses)
system.l2.ReadCleanReq_accesses::total          23762                       # number of ReadCleanReq accesses(hits+misses)
system.l2.ReadSharedReq_accesses::cpu.data         4118                       # number of ReadSharedReq accesses(hits+misses)
system.l2.ReadSharedReq_accesses::total          4118                       # number of ReadSharedReq accesses(hits+misses)
system.l2.demand_accesses::cpu.inst             23762                       # number of demand (read+write) accesses
system.l2.demand_accesses::cpu.data             15826                       # number of demand (read+write) accesses
system.l2.demand_accesses::total                39588                       # number of demand (read+write) accesses
system.l2.overall_accesses::cpu.inst            23762                       # number of overall (read+write) accesses
system.l2.overall_accesses::cpu.data            15826                       # number of overall (read+write) accesses
system.l2.overall_accesses::total               39588                       # number of overall (read+write) accesses
system.l2.ReadExReq_miss_rate::cpu.data      0.926204                       # miss rate for ReadExReq accesses
system.l2.ReadExReq_miss_rate::total         0.926204                       # miss rate for ReadExReq accesses
system.l2.ReadCleanReq_miss_rate::cpu.inst     0.125032                       # miss rate for ReadCleanReq accesses
system.l2.ReadCleanReq_miss_rate::total      0.125032                       # miss rate for ReadCleanReq accesses
system.l2.ReadSharedReq_miss_rate::cpu.data     0.309131                       # miss rate for ReadSharedReq accesses
system.l2.ReadSharedReq_miss_rate::total     0.309131                       # miss rate for ReadSharedReq accesses
system.l2.demand_miss_rate::cpu.inst         0.125032                       # miss rate for demand accesses
system.l2.demand_miss_rate::cpu.data         0.765639                       # miss rate for demand accesses
system.l2.demand_miss_rate::total            0.381126                       # miss rate for demand accesses
system.l2.overall_miss_rate::cpu.inst        0.125032                       # miss rate for overall accesses
system.l2.overall_miss_rate::cpu.data        0.765639                       # miss rate for overall accesses
system.l2.overall_miss_rate::total           0.381126                       # miss rate for overall accesses
system.l2.ReadExReq_avg_miss_latency::cpu.data 79216.386942                       # average ReadExReq miss latency
system.l2.ReadExReq_avg_miss_latency::total 79216.386942                       # average ReadExReq miss latency
system.l2.ReadCleanReq_avg_miss_latency::cpu.inst 77538.202625                       # average ReadCleanReq miss latency
system.l2.ReadCleanReq_avg_miss_latency::total 77538.202625                       # average ReadCleanReq miss latency
system.l2.ReadSharedReq_avg_miss_latency::cpu.data 87226.630008                       # average ReadSharedReq miss latency
system.l2.ReadSharedReq_avg_miss_latency::total 87226.630008                       # average ReadSharedReq miss latency
system.l2.demand_avg_miss_latency::cpu.inst 77538.202625                       # average overall miss latency
system.l2.demand_avg_miss_latency::cpu.data 80057.935132                       # average overall miss latency
system.l2.demand_avg_miss_latency::total 79561.770944                       # average overall miss latency
system.l2.overall_avg_miss_latency::cpu.inst 77538.202625                       # average overall miss latency
system.l2.overall_avg_miss_latency::cpu.data 80057.935132                       # average overall miss latency
system.l2.overall_avg_miss_latency::total 79561.770944                       # average overall miss latency
system.l2.blocked_cycles::no_mshrs                  0                       # number of cycles access was blocked
system.l2.blocked_cycles::no_targets                0                       # number of cycles access was blocked
system.l2.blocked::no_mshrs                         0                       # number of cycles access was blocked
system.l2.blocked::no_targets                       0                       # number of cycles access was blocked
system.l2.avg_blocked_cycles::no_mshrs            nan                       # average number of cycles each access was blocked
system.l2.avg_blocked_cycles::no_targets          nan                       # average number of cycles each access was blocked
system.l2.fast_writes                               0                       # number of fast writes performed
system.l2.cache_copies                              0                       # number of cache copies performed
system.l2.writebacks::writebacks                 1277                       # number of writebacks
system.l2.writebacks::total                      1277                       # number of writebacks
system.l2.CleanEvict_mshr_misses::writebacks           42                       # number of CleanEvict MSHR misses
system.l2.CleanEvict_mshr_misses::total            42                       # number of CleanEvict MSHR misses
system.l2.ReadExReq_mshr_misses::cpu.data        10844                       # number of ReadExReq MSHR misses
system.l2.ReadExReq_mshr_misses::total          10844                       # number of ReadExReq MSHR misses
system.l2.ReadCleanReq_mshr_misses::cpu.inst         2971                       # number of ReadCleanReq MSHR misses
system.l2.ReadCleanReq_mshr_misses::total         2971                       # number of ReadCleanReq MSHR misses
system.l2.ReadSharedReq_mshr_misses::cpu.data         1273                       # number of ReadSharedReq MSHR misses
system.l2.ReadSharedReq_mshr_misses::total         1273                       # number of ReadSharedReq MSHR misses
system.l2.demand_mshr_misses::cpu.inst           2971                       # number of demand (read+write) MSHR misses
system.l2.demand_mshr_misses::cpu.data          12117                       # number of demand (read+write) MSHR misses
system.l2.demand_mshr_misses::total             15088                       # number of demand (read+write) MSHR misses
system.l2.overall_mshr_misses::cpu.inst          2971                       # number of overall MSHR misses
system.l2.overall_mshr_misses::cpu.data         12117                       # number of overall MSHR misses
system.l2.overall_mshr_misses::total            15088                       # number of overall MSHR misses
system.l2.ReadExReq_mshr_miss_latency::cpu.data    750582500                       # number of ReadExReq MSHR miss cycles
system.l2.ReadExReq_mshr_miss_latency::total    750582500                       # number of ReadExReq MSHR miss cycles
system.l2.ReadCleanReq_mshr_miss_latency::cpu.inst    200656000                       # number of ReadCleanReq MSHR miss cycles
system.l2.ReadCleanReq_mshr_miss_latency::total    200656000                       # number of ReadCleanReq MSHR miss cycles
system.l2.ReadSharedReq_mshr_miss_latency::cpu.data     98309500                       # number of ReadSharedReq MSHR miss cycles
system.l2.ReadSharedReq_mshr_miss_latency::total     98309500                       # number of ReadSharedReq MSHR miss cycles
system.l2.demand_mshr_miss_latency::cpu.inst    200656000                       # number of demand (read+write) MSHR miss cycles
system.l2.demand_mshr_miss_latency::cpu.data    848892000                       # number of demand (read+write) MSHR miss cycles
system.l2.demand_mshr_miss_latency::total   1049548000                       # number of demand (read+write) MSHR miss cycles
system.l2.overall_mshr_miss_latency::cpu.inst    200656000                       # number of overall MSHR miss cycles
system.l2.overall_mshr_miss_latency::cpu.data    848892000                       # number of overall MSHR miss cycles
system.l2.overall_mshr_miss_latency::total   1049548000                       # number of overall MSHR miss cycles
system.l2.CleanEvict_mshr_miss_rate::writebacks          inf                       # mshr miss rate for CleanEvict accesses
system.l2.CleanEvict_mshr_miss_rate::total          inf                       # mshr miss rate for CleanEvict accesses
system.l2.ReadExReq_mshr_miss_rate::cpu.data     0.926204                       # mshr miss rate for ReadExReq accesses
system.l2.ReadExReq_mshr_miss_rate::total     0.926204                       # mshr miss rate for ReadExReq accesses
system.l2.ReadCleanReq_mshr_miss_rate::cpu.inst     0.125032                       # mshr miss rate for ReadCleanReq accesses
system.l2.ReadCleanReq_mshr_miss_rate::total     0.125032                       # mshr miss rate for ReadCleanReq accesses
system.l2.ReadSharedReq_mshr_miss_rate::cpu.data     0.309131                       # mshr miss rate for ReadSharedReq accesses
system.l2.ReadSharedReq_mshr_miss_rate::total     0.309131                       # mshr miss rate for ReadSharedReq accesses
system.l2.demand_mshr_miss_rate::cpu.inst     0.125032                       # mshr miss rate for demand accesses
system.l2.demand_mshr_miss_rate::cpu.data     0.765639                       # mshr miss rate for demand accesses
system.l2.demand_mshr_miss_rate::total       0.381126                       # mshr miss rate for demand accesses
system.l2.overall_mshr_miss_rate::cpu.inst     0.125032                       # mshr miss rate for overall accesses
system.l2.overall_mshr_miss_rate::cpu.data     0.765639                       # mshr miss rate for overall accesses
system.l2.overall_mshr_miss_rate::total      0.381126                       # mshr miss rate for overall accesses
system.l2.ReadExReq_avg_mshr_miss_latency::cpu.data 69216.386942                       # average ReadExReq mshr miss latency
system.l2.ReadExReq_avg_mshr_miss_latency::total 69216.386942                       # average ReadExReq mshr miss latency
system.l2.ReadCleanReq_avg_mshr_miss_latency::cpu.inst 67538.202625                       # average ReadCleanReq mshr miss latency
system.l2.ReadCleanReq_avg_mshr_miss_latency::total 67538.202625                       # average ReadCleanReq mshr miss latency
system.l2.ReadSharedReq_avg_mshr_miss_latency::cpu.data 77226.630008                       # average ReadSharedReq mshr miss latency
system.l2.ReadSharedReq_avg_mshr_miss_latency::total 77226.630008                       # average ReadSharedReq mshr miss latency
system.l2.demand_avg_mshr_miss_latency::cpu.inst 67538.202625                       # average overall mshr miss latency
system.l2.demand_avg_mshr_miss_latency::cpu.data 70057.935132                       # average overall mshr miss latency
system.l2.demand_avg_mshr_miss_latency::total 69561.770944                       # average overall mshr miss latency
system.l2.overall_avg_mshr_miss_latency::cpu.inst 67538.202625                       # average overall mshr miss latency
system.l2.overall_avg_mshr_miss_latency::cpu.data 70057.935132                       # average overall mshr miss latency
system.l2.overall_avg_mshr_miss_latency::total 69561.770944                       # average overall mshr miss latency
system.l2.no_allocate_misses                        0                       # Number of misses that were no-allocate
system.membus.trans_dist::ReadResp               4244                       # Transaction distribution
system.membus.trans_dist::Writeback              1277                       # Transaction distribution
system.membus.trans_dist::CleanEvict              571                       # Transaction distribution
system.membus.trans_dist::ReadExReq             10844                       # Transaction distribution
system.membus.trans_dist::ReadExResp            10844                       # Transaction distribution
system.membus.trans_dist::ReadSharedReq          4244                       # Transaction distribution
system.membus.pkt_count_system.l2.mem_side::system.mem_ctrls.port        32024                       # Packet count per connected master and slave (bytes)
system.membus.pkt_count::total                  32024                       # Packet count per connected master and slave (bytes)
system.membus.pkt_size_system.l2.mem_side::system.mem_ctrls.port      1047360                       # Cumulative packet size per connected master and slave (bytes)
system.membus.pkt_size::total                 1047360                       # Cumulative packet size per connected master and slave (bytes)
system.membus.snoops                                0                       # Total snoops (count)
system.membus.snoop_fanout::samples             16936                       # Request fanout histogram
system.membus.snoop_fanout::mean                    0                       # Request fanout histogram
system.membus.snoop_fanout::stdev                   0                       # Request fanout histogram
system.membus.snoop_fanout::underflows              0      0.00%      0.00% # Request fanout histogram
system.membus.snoop_fanout::0                   16936    100.00%    100.00% # Request fanout histogram
system.membus.snoop_fanout::1                       0      0.00%    100.00% # Request fanout histogram
system.membus.snoop_fanout::overflows               0      0.00%    100.00% # Request fanout histogram
system.membus.snoop_fanout::min_value               0                       # Request fanout histogram
system.membus.snoop_fanout::max_value               0                       # Request fanout histogram
system.membus.snoop_fanout::total               16936                       # Request fanout histogram
system.membus.reqLayer0.occupancy            22066000                       # Layer occupancy (ticks)
system.membus.reqLayer0.utilization               0.1                       # Layer utilization (%)
system.membus.respLayer1.occupancy           80916500                       # Layer occupancy (ticks)
system.membus.respLayer1.utilization              0.5                       # Layer utilization (%)
system.tol2bus.snoop_filter.tot_requests        77640                       # Total number of requests made to the snoop filter.
system.tol2bus.snoop_filter.hit_single_requests        38052                       # Number of requests hitting in the snoop filter with a single holder of the requested data.
system.tol2bus.snoop_filter.hit_multi_requests            0                       # Number of requests hitting in the snoop filter with multiple (>1) holders of the requested data.
system.tol2bus.snoop_filter.tot_snoops             50                       # Total number of snoops made to the snoop filter.
system.tol2bus.snoop_filter.hit_single_snoops           50                       # Number of snoops hitting in the snoop filter with a single holder of the requested data.
system.tol2bus.snoop_filter.hit_multi_snoops            0                       # Number of snoops hitting in the snoop filter with multiple (>1) holders of the requested data.
system.tol2bus.trans_dist::ReadResp             27880                       # Transaction distribution
system.tol2bus.trans_dist::Writeback            14576                       # Transaction distribution
system.tol2bus.trans_dist::CleanEvict           25332                       # Transaction distribution
system.tol2bus.trans_dist::ReadExReq            11708                       # Transaction distribution
system.tol2bus.trans_dist::ReadExResp           11708                       # Transaction distribution
system.tol2bus.trans_dist::ReadCleanReq         23762                       # Transaction distribution
system.tol2bus.trans_dist::ReadSharedReq         4118                       # Transaction distribution
system.tol2bus.pkt_count_system.cpu.icache.mem_side::system.l2.cpu_side        70774                       # Packet count per connected master and slave (bytes)
system.tol2bus.pkt_count_system.cpu.dcache.mem_side::system.l2.cpu_side        46454                       # Packet count per connected master and slave (bytes)
system.tol2bus.pkt_count::total                117228                       # Packet count per connected master and slave (bytes)
system.tol2bus.pkt_size_system.cpu.icache.mem_side::system.l2.cpu_side      1520768                       # Cumulative packet size per connected master and slave (bytes)
system.tol2bus.pkt_size_system.cpu.dcache.mem_side::system.l2.cpu_side      1864000                       # Cumulative packet size per connected master and slave (bytes)
system.tol2bus.pkt_size::total                3384768                       # Cumulative packet size per connected master and slave (bytes)
system.tol2bus.snoops                            1856                       # Total snoops (count)
system.tol2bus.snoop_fanout::samples            79496                       # Request fanout histogram
system.tol2bus.snoop_fanout::mean            0.000629                       # Request fanout histogram
system.tol2bus.snoop_fanout::stdev           0.025071                       # Request fanout histogram
system.tol2bus.snoop_fanout::underflows             0      0.00%      0.00% # Request fanout histogram
system.tol2bus.snoop_fanout::0                  79446     99.94%     99.94% # Request fanout histogram
system.tol2bus.snoop_fanout::1                     50      0.06%    100.00% # Request fanout histogram
system.tol2bus.snoop_fanout::2                      0      0.00%    100.00% # Request fanout histogram
system.tol2bus.snoop_fanout::overflows              0      0.00%    100.00% # Request fanout histogram
system.tol2bus.snoop_fanout::min_value              0                       # Request fanout histogram
system.tol2bus.snoop_fanout::max_value              1                       # Request fanout histogram
system.tol2bus.snoop_fanout::total              79496                       # Request fanout histogram
system.tol2bus.reqLayer0.occupancy           52119000                       # Layer occupancy (ticks)
system.tol2bus.reqLayer0.utilization              0.3                       # Layer utilization (%)
system.tol2bus.respLayer0.occupancy          35643000                       # Layer occupancy (ticks)
system.tol2bus.respLayer0.utilization             0.2                       # Layer utilization (%)
system.tol2bus.respLayer1.occupancy          23739000                       # Layer occupancy (ticks)
system.tol2bus.respLayer1.utilization             0.2                       # Layer utilization (%)

---------- End Simulation Statistics   ----------
